Circuit: * C:\Users\chris\OneDrive\Desktop\Classes\3rd Year 2nd Semester\E Design 344\GitRepo\E344\LTSpice\A4\A4a\E344_12345678_A4a.asc

V3: Removing PWL point (0.06,0.5)
WARNING: Less than two connections to node VBATT.  This node is used by RSENSEVBATT.
WARNING: Less than two connections to node MOTOR_CONTROL.  This node is used by R1.
Direct Newton iteration failed to find .op point.  (Use ".option noopiter" to skip.)
Starting Gmin stepping
Gmin = 10
Gmin = 1.07374
Gmin = 0.115292
Gmin = 0.0123794
Gmin = 0.00132923
Gmin = 0.000142725
Gmin = 1.5325e-005
Gmin = 1.6455e-006
Gmin = 1.76685e-007
Gmin = 1.89714e-008
Gmin = 2.03704e-009
Gmin = 2.18725e-010
Gmin = 2.34854e-011
Gmin = 2.52173e-012
Gmin = 2.70769e-013
Gmin = 0
Gmin stepping succeeded in finding the operating point.


Date: Wed Aug 17 09:08:08 2022
Total elapsed time: 0.098 seconds.

tnom = 27
temp = 27
method = modified trap
totiter = 3278
traniter = 2769
tranpoints = 1360
accept = 1255
rejected = 105
matrix size = 22
fillins = 16
solver = Normal
Matrix Compiler1: 1.85 KB object code size  0.3/0.2/[0.1]
Matrix Compiler2: 1.85 KB object code size  0.2/0.3/[0.2]

