Circuit: * C:\Users\chris\OneDrive\Desktop\Classes\3rd Year 2nd Semester\E Design 344\GitRepo\E344\LTSpice\A4\A4b\E344_12345678_A4b.asc

Limiting rise time of source v3 to 0.003
Limiting fall time of source v3 to 0.003
WARNING: Node NC_02 is floating.

WARNING: Less than two connections to node 5V.  This node is used by RSENSE5V.
WARNING: Less than two connections to node NC_01.  This node is used by D2.
WARNING: Less than two connections to node NC_02.  This node is used by D2.
WARNING: Less than two connections to node MOTOR_CONTROL.  This node is used by R_MC.
Direct Newton iteration for .op point succeeded.

Date: Wed Aug 17 09:03:49 2022
Total elapsed time: 0.159 seconds.

tnom = 27
temp = 27
method = modified trap
totiter = 2206
traniter = 2184
tranpoints = 1093
accept = 1084
rejected = 9
matrix size = 22
fillins = 2
solver = Normal
Matrix Compiler1: 984 bytes object code size  0.2/0.1/[0.1]
Matrix Compiler2: off  [0.1]/0.2/0.1

