Circuit: * C:\Users\chris\OneDrive\Desktop\Classes\3rd Year 2nd Semester\E Design 344\GitRepo\E344\LTSpice\A4\A4b\E344_23648074_A4b.asc

Limiting rise time of source v3 to 0.003
Limiting fall time of source v3 to 0.003
WARNING: Less than two connections to node 5V.  This node is used by RSENSE5V.
Direct Newton iteration for .op point succeeded.

Date: Tue Aug 23 21:22:22 2022
Total elapsed time: 0.216 seconds.

tnom = 27
temp = 27
method = modified trap
totiter = 31294
traniter = 31286
tranpoints = 14991
accept = 10606
rejected = 4385
matrix size = 19
fillins = 2
solver = Normal
Matrix Compiler1: 906 bytes object code size  0.2/0.1/[0.1]
Matrix Compiler2: 1.28 KB object code size  0.1/0.1/[0.1]

