Circuit: * C:\Users\chris\OneDrive\Desktop\Classes\3rd Year 2nd Semester\E Design 344\GitRepo\E344\LTSpice\A5\E344_12345678_A5.asc

Limiting rise time of source v3 to 0.006
Limiting fall time of source v3 to 0.006
Direct Newton iteration failed to find .op point.  (Use ".option noopiter" to skip.)
Starting Gmin stepping
Gmin = 10
Gmin = 1.07374
Gmin = 0.115292
Gmin = 0.0123794
Gmin = 0.00132923
Gmin = 0.000142725
Gmin = 1.5325e-005
Gmin = 1.6455e-006
Gmin = 1.76685e-007
Gmin = 1.89714e-008
Gmin = 2.03704e-009
Gmin = 2.18725e-010
Gmin = 2.34854e-011
Gmin = 2.52173e-012
Gmin = 2.70769e-013
Gmin = 0
Gmin stepping succeeded in finding the operating point.


Date: Fri Sep 16 10:47:45 2022
Total elapsed time: 13.732 seconds.

tnom = 27
temp = 27
method = modified trap
totiter = 1265924
traniter = 1265483
tranpoints = 487589
accept = 410298
rejected = 77291
matrix size = 34
fillins = 22
solver = Normal
Matrix Compiler1: 2.83 KB object code size  0.5/0.3/[0.2]
Matrix Compiler2: 2.89 KB object code size  0.2/0.4/[0.3]

