Circuit: * C:\Users\chris\OneDrive\Desktop\Classes\3rd Year 2nd Semester\E Design 344\GitRepo\E344\LTSpice\A6\A6a\A6a.asc

Direct Newton iteration failed to find .op point.  (Use ".option noopiter" to skip.)
Starting Gmin stepping
Gmin = 10
Gmin = 1.07374
Gmin = 0.115292
Gmin = 0.0123794
Gmin = 0.00132923
Gmin = 0.000142725
Gmin = 1.5325e-005
Gmin = 1.6455e-006
Gmin = 1.76685e-007
Gmin = 1.89714e-008
Gmin = 2.03704e-009
Gmin = 2.18725e-010
Gmin = 2.34854e-011
Gmin = 2.52173e-012
Gmin = 2.70769e-013
Gmin = 0
Gmin stepping succeeded in finding the operating point.


Date: Wed Sep 21 19:00:11 2022
Total elapsed time: 0.145 seconds.

tnom = 27
temp = 27
method = modified trap
totiter = 11208
traniter = 10776
tranpoints = 3351
accept = 2656
rejected = 695
matrix size = 34
fillins = 10
solver = Normal
Thread vector: 8.6/5.0[2] 1.3/1.1[2] 1.3/1.1[2] 0.1/0.5[1]  2592/500
Matrix Compiler1: 2.52 KB object code size  0.4/0.2/[0.1]
Matrix Compiler2: 2.98 KB object code size  0.2/0.4/[0.2]

