Circuit: * C:\Users\chris\OneDrive\Desktop\Classes\3rd Year 2nd Semester\E Design 344\GitRepo\E344\LTSpice\A6\A6a\Draft1.asc

Warning: Multiple definitions of model "2n2222" Type: BJT
Direct Newton iteration for .op point succeeded.

Date: Tue Sep 27 11:15:31 2022
Total elapsed time: 0.113 seconds.

tnom = 27
temp = 27
method = modified trap
totiter = 2048
traniter = 2034
tranpoints = 1018
accept = 1018
rejected = 0
matrix size = 11
fillins = 0
solver = Normal
Matrix Compiler1: 556 bytes object code size  0.1/0.1/[0.1]
Matrix Compiler2: 813 bytes object code size  0.1/0.1/[0.1]

