Circuit: * C:\Users\chris\OneDrive\Desktop\Classes\3rd Year 2nd Semester\E Design 344\GitRepo\E344\LTSpice\Voltage Regulator\Draft2.asc

WARNING: Less than two connections to node NC_01.  This node is used by Q1.
Direct Newton iteration for .op point succeeded.

Date: Mon Sep 19 20:36:36 2022
Total elapsed time: 0.056 seconds.

tnom = 27
temp = 27
method = modified trap
totiter = 6698
traniter = 6675
tranpoints = 1473
accept = 1046
rejected = 427
matrix size = 21
fillins = 4
solver = Normal
Matrix Compiler1: 1.89 KB object code size  0.3/0.2/[0.1]
Matrix Compiler2: 2.04 KB object code size  0.2/0.2/[0.2]

