Circuit: * C:\Users\chris\OneDrive\Desktop\Classes\3rd Year 2nd Semester\E Design 344\GitRepo\E344\LTSpice\Voltage Regulator\Draft3.asc

Direct Newton iteration failed to find .op point.  (Use ".option noopiter" to skip.)
Starting Gmin stepping
Gmin = 10
Gmin = 1.07374
Gmin = 0.115292
Gmin = 0.0123794
Gmin = 0.00132923
Gmin = 0.000142725
Gmin = 1.5325e-005
Gmin = 1.6455e-006
Gmin = 1.76685e-007
Gmin = 1.89714e-008
Gmin = 2.03704e-009
Gmin = 2.18725e-010
Gmin = 2.34854e-011
Gmin = 2.52173e-012
Gmin = 2.70769e-013
Gmin = 0
Gmin stepping succeeded in finding the operating point.


Date: Wed Sep 21 09:43:34 2022
Total elapsed time: 0.135 seconds.

tnom = 27
temp = 27
method = modified trap
totiter = 11522
traniter = 11092
tranpoints = 3488
accept = 2740
rejected = 748
matrix size = 31
fillins = 10
solver = Normal
Thread vector: 13.5/7.4[2] 2.0/2.0[1] 2.0/1.6[2] 0.2/0.7[1]  2592/500
Matrix Compiler1: 2.41 KB object code size  0.6/0.4/[0.2]
Matrix Compiler2: 2.74 KB object code size  0.4/0.7/[0.4]

