Circuit: * C:\Users\chris\OneDrive\Desktop\Classes\3rd Year 2nd Semester\E Design 344\GitRepo\E344\LTSpice\E344_23648074_A1.asc

Direct Newton iteration for .op point succeeded.

Date: Sat Jul 30 12:59:53 2022
Total elapsed time: 0.332 seconds.

tnom = 27
temp = 27
method = modified trap
totiter = 35902
traniter = 35872
tranpoints = 15063
accept = 10026
rejected = 5037
matrix size = 18
fillins = 11
solver = Normal
Matrix Compiler1: 1.67 KB object code size  0.4/0.2/[0.1]
Matrix Compiler2: 1.56 KB object code size  0.1/0.2/[0.1]

