Circuit: * C:\Users\chris\OneDrive\Desktop\Classes\3rd Year 2nd Semester\E Design 344\GitRepo\E344\LTSpice\A2\E344_Ass2_US2A - Copy.asc

Limiting rise time of source v3 to 0.0055
Limiting fall time of source v3 to 0.0055
Limiting rise time of source v6 to 0.0006
Limiting fall time of source v6 to 0.0006
Limiting rise time of source v5 to 5e-005
Limiting fall time of source v5 to 5e-005
Limiting rise time of source v12 to 0.0006
Limiting fall time of source v12 to 0.0006
Direct Newton iteration failed to find .op point.  (Use ".option noopiter" to skip.)
Starting Gmin stepping
Gmin = 10
Gmin = 1.07374
Gmin = 0.115292
Gmin = 0.0123794
Gmin = 0.00132923
Gmin = 0.000142725
Gmin = 1.5325e-005
Gmin = 1.6455e-006
vernier = 0.5
vernier = 0.25
vernier = 0.125
vernier = 0.0625
Gmin = 1.26045e-006
vernier = 0.0833333
vernier = 0.111111
Gmin = 1.03442e-006
vernier = 0.148148
Gmin = 7.52024e-007
vernier = 0.197531
vernier = 0.263374
Gmin = 4.48491e-007
vernier = 0.351165
vernier = 0.46822
Gmin = 2.00136e-007
vernier = 0.624294
Gmin = 5.57218e-008
vernier = 0.832392
vernier = 1
Gmin = 7.93773e-009
Gmin = 8.52308e-010
Gmin = 9.15158e-011
Gmin = 9.82644e-012
Gmin = 1.05511e-012
Gmin = 1.13291e-013
Gmin = 0
Gmin stepping succeeded in finding the operating point.


Date: Fri Aug 05 11:08:26 2022
Total elapsed time: 1.033 seconds.

tnom = 27
temp = 27
method = modified trap
totiter = 113542
traniter = 112412
tranpoints = 51792
accept = 38679
rejected = 13113
matrix size = 34
fillins = 46
solver = Normal
Thread vector: 9.3/5.5[3] 1.8/1.4[3] 1.0/1.6[1] 0.2/0.7[1]  2592/500
Matrix Compiler1: 4.78 KB object code size  0.8/0.5/[0.2]
Matrix Compiler2: 3.42 KB object code size  0.3/0.6/[0.3]

