Circuit: * C:\Users\chris\OneDrive\Desktop\Classes\3rd Year 2nd Semester\E Design 344\GitRepo\E344\LTSpice\A2\E344_Ass2_US2A.asc

WARNING: Specified period is not longer than the sum of Trise, Tfall, and Ton for v3.  Increasing period to 0.07
Limiting rise time of source v3 to 1.38778e-017
Limiting fall time of source v3 to 1.38778e-017
Limiting rise time of source v6 to 0.0006
Limiting fall time of source v6 to 0.0006
Limiting rise time of source v5 to 5e-005
Limiting fall time of source v5 to 5e-005
Limiting rise time of source v12 to 0.0006
Limiting fall time of source v12 to 0.0006
Direct Newton iteration failed to find .op point.  (Use ".option noopiter" to skip.)
Starting Gmin stepping
Gmin = 10
Gmin = 1.07374
Gmin = 0.115292
Gmin = 0.0123794
Gmin = 0.00132923
Gmin = 0.000142725
Gmin = 1.5325e-005
Gmin = 1.6455e-006
Gmin = 1.76685e-007
Gmin = 1.89714e-008
Gmin = 2.03704e-009
Gmin = 2.18725e-010
Gmin = 2.34854e-011
Gmin = 2.52173e-012
Gmin = 2.70769e-013
Gmin = 0
Gmin stepping succeeded in finding the operating point.


Date: Sun Aug 07 21:50:24 2022
Total elapsed time: 0.218 seconds.

tnom = 27
temp = 27
method = modified trap
totiter = 21214
traniter = 20715
tranpoints = 9877
accept = 7651
rejected = 2226
matrix size = 25
fillins = 16
solver = Normal
Matrix Compiler1: 1.98 KB object code size  0.3/0.2/[0.1]
Matrix Compiler2: 2.07 KB object code size  0.2/0.3/[0.2]

