Circuit: * C:\Als\Work\SUN\Classes\E-design\2022\Assignments\Ass6\Ass6aLTspiceTemplate\E344_12345678_A6b.asc

M2: all pins shorted together -- ignoring.
WARNING: Node NC_03 is floating.
WARNING: Node NC_05 is floating.

WARNING: Less than two connections to node BATTERYTERMINAL.  This node is used by RSENSEBATTERY.
WARNING: Less than two connections to node VSUPPLY.  This node is used by RSENSESUPPLY.
WARNING: Less than two connections to node CHARGEON.  This node is used by V2.
WARNING: Less than two connections to node NC_02.  This node is used by D1.
WARNING: Less than two connections to node NC_03.  This node is used by D1.
WARNING: Less than two connections to node NC_04.  This node is used by D2.
WARNING: Less than two connections to node NC_05.  This node is used by D2.
Direct Newton iteration failed to find .op point.  (Use ".option noopiter" to skip.)
Starting Gmin stepping
Gmin = 10
Gmin = 1.07374
Gmin = 0.115292
Gmin = 0.0123794
Gmin = 0.00132923
Gmin = 0.000142725
Gmin = 1.5325e-005
Gmin = 1.6455e-006
Gmin = 1.76685e-007
Gmin = 1.89714e-008
Gmin = 2.03704e-009
Gmin = 2.18725e-010
Gmin = 2.34854e-011
Gmin = 2.52173e-012
Gmin = 2.70769e-013
Gmin = 0
Gmin stepping succeeded in finding the operating point.


Date: Mon Sep 19 05:51:40 2022
Total elapsed time: 0.282 seconds.

tnom = 27
temp = 27
method = modified trap
totiter = 4448
traniter = 4077
tranpoints = 2039
accept = 2039
rejected = 0
matrix size = 52
fillins = 11
solver = Normal
Matrix Compiler1: 3.14 KB object code size  0.6/0.4/[0.2]
Matrix Compiler2: 3.80 KB object code size  0.4/0.7/[0.4]

